Version 4
SHEET 1 1068 680
WIRE 176 -144 80 -144
WIRE 256 -144 176 -144
WIRE 336 -144 256 -144
WIRE 528 -144 336 -144
WIRE 176 -112 176 -144
WIRE 256 -112 256 -144
WIRE 336 -112 336 -144
WIRE 176 -16 176 -48
WIRE 256 -16 256 -48
WIRE 256 -16 176 -16
WIRE 336 -16 336 -48
WIRE 336 -16 256 -16
WIRE 256 0 256 -16
WIRE 80 64 80 -144
WIRE 256 128 256 80
WIRE 528 144 528 -144
WIRE 80 176 80 144
WIRE 80 176 -176 176
WIRE 176 176 80 176
WIRE 176 208 176 176
WIRE 208 208 176 208
WIRE 80 224 80 176
WIRE -176 240 -176 176
WIRE -176 400 -176 320
WIRE 80 400 80 304
WIRE 80 400 -176 400
WIRE 256 400 256 224
WIRE 256 400 80 400
WIRE 528 400 528 224
WIRE 528 400 256 400
WIRE 256 432 256 400
FLAG 256 432 0
SYMBOL res 240 -16 R0
SYMATTR InstName R1
SYMATTR Value 33
SYMATTR SpiceLine tol=5 pwr=0.5
SYMBOL res 64 48 R0
SYMATTR InstName R2
SYMATTR Value 360
SYMATTR SpiceLine tol=5 pwr=0.25
SYMBOL res 64 208 R0
SYMATTR InstName R3
SYMATTR Value 10k
SYMATTR SpiceLine tol=5 pwr=0.25
SYMBOL voltage 528 128 R0
WINDOW 123 0 0 Left 2
WINDOW 39 0 0 Left 2
SYMATTR InstName V1
SYMATTR Value 5
SYMBOL voltage -176 224 R0
WINDOW 123 0 0 Left 2
WINDOW 39 -130 159 Left 2
WINDOW 3 -130 131 Left 2
SYMATTR SpiceLine Rser=32
SYMATTR Value PULSE(0 3.3 2)
SYMATTR InstName V2
SYMBOL nmos 208 128 R0
SYMATTR InstName M1
SYMATTR Value BS170PLP
SYMATTR Prefix X
SYMBOL LED 160 -112 R0
WINDOW 3 -133 69 Left 2
SYMATTR Value LED_GREEN
SYMATTR InstName D1
SYMBOL LED 240 -112 R0
WINDOW 3 -49 76 Left 2
SYMATTR Value LED_GREEN
SYMATTR InstName D2
SYMBOL LED 320 -112 R0
WINDOW 3 36 70 Left 2
SYMATTR Value LED_GREEN
SYMATTR InstName D3
TEXT 320 280 Left 2 !.tran 5s
TEXT 344 424 Left 1 !.inc C:\\Program Files (x86)\\LTC\\LTspiceIV\\lib\\sym\\Philips\\NMOSFET\\BS170PLP.prm
