## Add the model to the LED 
Green LED model
*
*
* GREEN LED Lite-on LTL1CHKGKNN
* created November 23, 2010 copyright Cordell Audio 
.model LED_GREEN D(Is=1e-19 N=2.0 Rs=1.5 Eg=2.23 Tnom=27deg type=LED)